Distrib/IEEETestCases/ShortCircuitCases/123Bus/DistGenerators.dss
new "generator.DG_1" bus1="1" kW=43.956043956044 PF=1 kV=4.16 model=1
new "generator.DG_2" bus1="2" kW=43.956043956044 PF=1 kV=4.16 model=1
new "generator.DG_4" bus1="4" kW=43.956043956044 PF=1 kV=4.16 model=1
new "generator.DG_5" bus1="5" kW=43.956043956044 PF=1 kV=4.16 model=1
new "generator.DG_6" bus1="6" kW=43.956043956044 PF=1 kV=4.16 model=1
new "generator.DG_7" bus1="7" kW=43.956043956044 PF=1 kV=4.16 model=1
new "generator.DG_9" bus1="9" kW=43.956043956044 PF=1 kV=4.16 model=1
new "generator.DG_10" bus1="10" kW=43.956043956044 PF=1 kV=4.16 model=1
new "generator.DG_11" bus1="11" kW=43.956043956044 PF=1 kV=4.16 model=1
new "generator.DG_12" bus1="12" kW=43.956043956044 PF=1 kV=4.16 model=1
new "generator.DG_16" bus1="16" kW=43.956043956044 PF=1 kV=4.16 model=1
new "generator.DG_17" bus1="17" kW=43.956043956044 PF=1 kV=4.16 model=1
new "generator.DG_19" bus1="19" kW=43.956043956044 PF=1 kV=4.16 model=1
new "generator.DG_20" bus1="20" kW=43.956043956044 PF=1 kV=4.16 model=1
new "generator.DG_22" bus1="22" kW=43.956043956044 PF=1 kV=4.16 model=1
new "generator.DG_24" bus1="24" kW=43.956043956044 PF=1 kV=4.16 model=1
new "generator.DG_28" bus1="28" kW=43.956043956044 PF=1 kV=4.16 model=1
new "generator.DG_29" bus1="29" kW=43.956043956044 PF=1 kV=4.16 model=1
new "generator.DG_30" bus1="30" kW=43.956043956044 PF=1 kV=4.16 model=1
new "generator.DG_31" bus1="31" kW=43.956043956044 PF=1 kV=4.16 model=1
new "generator.DG_32" bus1="32" kW=43.956043956044 PF=1 kV=4.16 model=1
new "generator.DG_33" bus1="33" kW=43.956043956044 PF=1 kV=4.16 model=1
new "generator.DG_34" bus1="34" kW=43.956043956044 PF=1 kV=4.16 model=1
new "generator.DG_35" bus1="35" kW=43.956043956044 PF=1 kV=4.16 model=1
new "generator.DG_37" bus1="37" kW=43.956043956044 PF=1 kV=4.16 model=1
new "generator.DG_38" bus1="38" kW=43.956043956044 PF=1 kV=4.16 model=1
new "generator.DG_39" bus1="39" kW=43.956043956044 PF=1 kV=4.16 model=1
new "generator.DG_41" bus1="41" kW=43.956043956044 PF=1 kV=4.16 model=1
new "generator.DG_42" bus1="42" kW=43.956043956044 PF=1 kV=4.16 model=1
new "generator.DG_43" bus1="43" kW=43.956043956044 PF=1 kV=4.16 model=1
new "generator.DG_45" bus1="45" kW=43.956043956044 PF=1 kV=4.16 model=1
new "generator.DG_46" bus1="46" kW=43.956043956044 PF=1 kV=4.16 model=1
new "generator.DG_47" bus1="47" kW=43.956043956044 PF=1 kV=4.16 model=1
new "generator.DG_48" bus1="48" kW=43.956043956044 PF=1 kV=4.16 model=1
new "generator.DG_49" bus1="49" kW=43.956043956044 PF=1 kV=4.16 model=1
new "generator.DG_49" bus1="49" kW=43.956043956044 PF=1 kV=4.16 model=1
new "generator.DG_49" bus1="49" kW=43.956043956044 PF=1 kV=4.16 model=1
new "generator.DG_50" bus1="50" kW=43.956043956044 PF=1 kV=4.16 model=1
new "generator.DG_51" bus1="51" kW=43.956043956044 PF=1 kV=4.16 model=1
new "generator.DG_52" bus1="52" kW=43.956043956044 PF=1 kV=4.16 model=1
new "generator.DG_53" bus1="53" kW=43.956043956044 PF=1 kV=4.16 model=1
new "generator.DG_55" bus1="55" kW=43.956043956044 PF=1 kV=4.16 model=1
new "generator.DG_56" bus1="56" kW=43.956043956044 PF=1 kV=4.16 model=1
new "generator.DG_58" bus1="58" kW=43.956043956044 PF=1 kV=4.16 model=1
new "generator.DG_59" bus1="59" kW=43.956043956044 PF=1 kV=4.16 model=1
new "generator.DG_60" bus1="60" kW=43.956043956044 PF=1 kV=4.16 model=1
new "generator.DG_62" bus1="62" kW=43.956043956044 PF=1 kV=4.16 model=1
new "generator.DG_63" bus1="63" kW=43.956043956044 PF=1 kV=4.16 model=1
new "generator.DG_64" bus1="64" kW=43.956043956044 PF=1 kV=4.16 model=1
new "generator.DG_65" bus1="65" kW=43.956043956044 PF=1 kV=4.16 model=1
new "generator.DG_65" bus1="65" kW=43.956043956044 PF=1 kV=4.16 model=1
new "generator.DG_65" bus1="65" kW=43.956043956044 PF=1 kV=4.16 model=1
new "generator.DG_66" bus1="66" kW=43.956043956044 PF=1 kV=4.16 model=1
new "generator.DG_68" bus1="68" kW=43.956043956044 PF=1 kV=4.16 model=1
new "generator.DG_69" bus1="69" kW=43.956043956044 PF=1 kV=4.16 model=1
new "generator.DG_70" bus1="70" kW=43.956043956044 PF=1 kV=4.16 model=1
new "generator.DG_71" bus1="71" kW=43.956043956044 PF=1 kV=4.16 model=1
new "generator.DG_73" bus1="73" kW=43.956043956044 PF=1 kV=4.16 model=1
new "generator.DG_74" bus1="74" kW=43.956043956044 PF=1 kV=4.16 model=1
new "generator.DG_75" bus1="75" kW=43.956043956044 PF=1 kV=4.16 model=1
new "generator.DG_76" bus1="76" kW=43.956043956044 PF=1 kV=4.16 model=1
new "generator.DG_76" bus1="76" kW=43.956043956044 PF=1 kV=4.16 model=1
new "generator.DG_76" bus1="76" kW=43.956043956044 PF=1 kV=4.16 model=1
new "generator.DG_77" bus1="77" kW=43.956043956044 PF=1 kV=4.16 model=1
new "generator.DG_79" bus1="79" kW=43.956043956044 PF=1 kV=4.16 model=1
new "generator.DG_80" bus1="80" kW=43.956043956044 PF=1 kV=4.16 model=1
new "generator.DG_82" bus1="82" kW=43.956043956044 PF=1 kV=4.16 model=1
new "generator.DG_83" bus1="83" kW=43.956043956044 PF=1 kV=4.16 model=1
new "generator.DG_84" bus1="84" kW=43.956043956044 PF=1 kV=4.16 model=1
new "generator.DG_85" bus1="85" kW=43.956043956044 PF=1 kV=4.16 model=1
new "generator.DG_86" bus1="86" kW=43.956043956044 PF=1 kV=4.16 model=1
new "generator.DG_87" bus1="87" kW=43.956043956044 PF=1 kV=4.16 model=1
new "generator.DG_88" bus1="88" kW=43.956043956044 PF=1 kV=4.16 model=1
new "generator.DG_90" bus1="90" kW=43.956043956044 PF=1 kV=4.16 model=1
new "generator.DG_92" bus1="92" kW=43.956043956044 PF=1 kV=4.16 model=1
new "generator.DG_94" bus1="94" kW=43.956043956044 PF=1 kV=4.16 model=1
new "generator.DG_95" bus1="95" kW=43.956043956044 PF=1 kV=4.16 model=1
new "generator.DG_96" bus1="96" kW=43.956043956044 PF=1 kV=4.16 model=1
new "generator.DG_98" bus1="98" kW=43.956043956044 PF=1 kV=4.16 model=1
new "generator.DG_99" bus1="99" kW=43.956043956044 PF=1 kV=4.16 model=1
new "generator.DG_100" bus1="100" kW=43.956043956044 PF=1 kV=4.16 model=1
new "generator.DG_102" bus1="102" kW=43.956043956044 PF=1 kV=4.16 model=1
new "generator.DG_103" bus1="103" kW=43.956043956044 PF=1 kV=4.16 model=1
new "generator.DG_104" bus1="104" kW=43.956043956044 PF=1 kV=4.16 model=1
new "generator.DG_106" bus1="106" kW=43.956043956044 PF=1 kV=4.16 model=1
new "generator.DG_107" bus1="107" kW=43.956043956044 PF=1 kV=4.16 model=1
new "generator.DG_109" bus1="109" kW=43.956043956044 PF=1 kV=4.16 model=1
new "generator.DG_111" bus1="111" kW=43.956043956044 PF=1 kV=4.16 model=1
new "generator.DG_112" bus1="112" kW=43.956043956044 PF=1 kV=4.16 model=1
new "generator.DG_113" bus1="113" kW=43.956043956044 PF=1 kV=4.16 model=1
new "generator.DG_114" bus1="114" kW=43.956043956044 PF=1 kV=4.16 model=1
